@<TRIPOS>MOLECULE
L8J
   31    32     1     0     0
SMALL
bcc


@<TRIPOS>ATOM
      1 C02         10.9570    16.0230     8.4570 ca       303 L8J      -0.035300
      2 C03         10.4460    14.7670     8.7440 ca       303 L8J      -0.191000
      3 C04         11.0380    13.6730     8.1300 ca       303 L8J       0.016700
      4 C06         12.0110    16.1580     7.5950 ca       303 L8J      -0.209000
      5 C07         12.6020    15.0360     6.9830 ca       303 L8J       0.108600
      6 C08         12.1400    13.7470     7.2240 ca       303 L8J      -0.096800
      7 C09         12.8120    12.6840     6.5420 cc       303 L8J       0.134600
      8 C10         12.5470    11.1810     6.6230 c3       303 L8J      -0.305400
      9 C15         13.8680    13.0400     5.7120 cd       303 L8J      -0.297200
     10 C16         14.2600    14.3520     5.5330 c        303 L8J       0.711700
     11 N18         13.6290    15.3130     6.1640 n        303 L8J      -0.451100
     12 O12         11.7780     8.9760     5.2440 o        303 L8J      -0.849000
     13 O13         10.0330    10.7140     5.4950 oh       303 L8J      -0.803400
     14 O14         11.9390    11.0750     3.9480 o        303 L8J      -0.849000
     15 O17         15.1650    14.6010     4.8120 o        303 L8J      -0.683500
     16 P11         11.5090    10.4650     5.2630 p5       303 L8J       1.327600
     17 C01         10.3520    17.2560     9.1000 c3       303 L8J      -0.048800
     18 C2          10.3640    12.3760     8.5430 c3       303 L8J      -0.075800
     19 H           13.4300    10.7120     6.6160 hc       303 L8J       0.085700
     20 H1          12.0870    10.9950     7.4910 hc       303 L8J       0.085700
     21 H2           9.6770    14.6500     9.3730 ha       303 L8J       0.123000
     22 H3          12.3650    17.0730     7.4000 ha       303 L8J       0.123000
     23 H4          14.3630    12.3190     5.2260 ha       303 L8J       0.157000
     24 H5          13.9160    16.2620     6.0340 hn       303 L8J       0.316500
     25 H6           9.7020    10.1990     6.2930 ho       303 L8J       0.424000
     26 H7           9.2410    17.0220     9.4900 hc       303 L8J       0.037367
     27 H8          11.0340    17.5890    10.0300 hc       303 L8J       0.037367
     28 H9          10.3040    18.1530     8.3040 hc       303 L8J       0.037367
     29 H10          9.3480    12.5630     9.1540 hc       303 L8J       0.056700
     30 H11         11.0910    11.7460     9.2610 hc       303 L8J       0.056700
     31 H12         10.0520    11.7610     7.5640 hc       303 L8J       0.056700
@<TRIPOS>BOND
     1     1     2 ar  
     2     1     4 ar  
     3     1    17 1   
     4     2     3 ar  
     5     2    21 1   
     6     3     6 ar  
     7     3    18 1   
     8     4     5 ar  
     9     4    22 1   
    10     5     6 ar  
    11     5    11 1   
    12     6     7 1   
    13     7     8 1   
    14     7     9 2   
    15     8    16 1   
    16     8    19 1   
    17     8    20 1   
    18     9    10 1   
    19     9    23 1   
    20    10    11 1   
    21    10    15 2   
    22    11    24 1   
    23    12    16 1   
    24    13    16 1   
    25    13    25 1   
    26    14    16 1   
    27    17    26 1   
    28    17    27 1   
    29    17    28 1   
    30    18    29 1   
    31    18    30 1   
    32    18    31 1   
@<TRIPOS>SUBSTRUCTURE
     1 L8J         1 TEMP              0 ****  ****    0 ROOT
