@<TRIPOS>MOLECULE
L8J
   31    32     1     0     0
SMALL
bcc


@<TRIPOS>ATOM
      1 C02         10.9580    15.9630     8.4490 ca       303 L8J      -0.024300
      2 C03         10.4900    14.6770     8.6960 ca       303 L8J      -0.225000
      3 C04         11.0520    13.5710     8.1010 ca       303 L8J       0.212100
      4 C06         12.0110    16.1580     7.5950 ca       303 L8J      -0.190000
      5 C07         12.6020    15.0360     6.9830 ca       303 L8J       0.166100
      6 C08         12.1400    13.7470     7.2240 ca       303 L8J      -0.145800
      7 C09         12.8120    12.6840     6.5420 cc       303 L8J       0.149600
      8 C10         12.5470    11.1810     6.6230 c3       303 L8J      -0.300400
      9 C15         13.8680    13.0400     5.7120 cd       303 L8J      -0.317200
     10 C16         14.2600    14.3520     5.5330 c        303 L8J       0.736800
     11 O18         13.6290    15.3130     6.1640 os       303 L8J      -0.345200
     12 O12         11.7780     8.9760     5.2440 o        303 L8J      -0.856000
     13 O13         10.0330    10.7140     5.4950 oh       303 L8J      -0.800400
     14 O14         11.9390    11.0750     3.9480 o        303 L8J      -0.856000
     15 O17         15.1650    14.6010     4.8120 o        303 L8J      -0.617500
     16 P11         11.5090    10.4650     5.2630 p5       303 L8J       1.338600
     17 C01         10.3170    17.1590     9.1280 c3       303 L8J      -0.050800
     18 O2          10.5690    12.3480     8.3460 os       303 L8J      -0.344900
     19 C17          9.4610    12.1860     9.2570 c3       303 L8J       0.109700
     20 H2           9.7220    14.5430     9.3230 ha       303 L8J       0.135000
     21 H           13.4300    10.7120     6.6160 hc       303 L8J       0.093700
     22 H1          12.0870    10.9950     7.4910 hc       303 L8J       0.093700
     23 H3          12.3650    17.0730     7.4000 ha       303 L8J       0.145000
     24 H4          14.3630    12.3190     5.2260 ha       303 L8J       0.174000
     25 H5           9.7010    10.1990     6.2930 ho       303 L8J       0.426000
     26 H6           9.2060    16.8870     9.4930 hc       303 L8J       0.040367
     27 H7          10.9790    17.4730    10.0780 hc       303 L8J       0.040367
     28 H8          10.2610    18.0840     8.3660 hc       303 L8J       0.040367
     29 H9           8.5000    12.7720     8.8390 h1       303 L8J       0.057033
     30 H10          9.1960    11.0200     9.3410 h1       303 L8J       0.057033
     31 H11          9.7640    12.5930    10.3450 h1       303 L8J       0.057033
@<TRIPOS>BOND
     1     1     2 ar  
     2     1     4 ar  
     3     1    17 1   
     4     2     3 ar  
     5     2    20 1   
     6     3     6 ar  
     7     3    18 1   
     8     4     5 ar  
     9     4    23 1   
    10     5     6 ar  
    11     5    11 1   
    12     6     7 1   
    13     7     8 1   
    14     7     9 2   
    15     8    16 1   
    16     8    21 1   
    17     8    22 1   
    18     9    10 1   
    19     9    24 1   
    20    10    11 1   
    21    10    15 2   
    22    12    16 1   
    23    13    16 1   
    24    13    25 1   
    25    14    16 1   
    26    17    26 1   
    27    17    27 1   
    28    17    28 1   
    29    18    19 1   
    30    19    29 1   
    31    19    30 1   
    32    19    31 1   
@<TRIPOS>SUBSTRUCTURE
     1 L8J         1 TEMP              0 ****  ****    0 ROOT
