@<TRIPOS>MOLECULE
L8J
   28    29     1     0     0
SMALL
bcc


@<TRIPOS>ATOM
      1 C02         10.9500    15.9970     8.4450 ca       303 L8J       0.148100
      2 C03         10.4850    14.6930     8.6980 ca       303 L8J      -0.240000
      3 C04         11.0670    13.5880     8.0960 ca       303 L8J      -0.024000
      4 C06         12.0110    16.1580     7.5950 ca       303 L8J      -0.199000
      5 C07         12.6020    15.0360     6.9830 ca       303 L8J       0.178100
      6 C08         12.1400    13.7470     7.2240 ca       303 L8J      -0.157800
      7 C09         12.8120    12.6840     6.5420 cc       303 L8J       0.156600
      8 C10         12.5470    11.1810     6.6230 c3       303 L8J      -0.298400
      9 C15         13.8680    13.0400     5.7120 cd       303 L8J      -0.311200
     10 C16         14.2600    14.3520     5.5330 c        303 L8J       0.739800
     11 O18         13.6290    15.3130     6.1640 os       303 L8J      -0.342200
     12 O12         11.7780     8.9760     5.2440 o        303 L8J      -0.846000
     13 O13         10.0330    10.7140     5.4950 oh       303 L8J      -0.805400
     14 O14         11.9390    11.0750     3.9480 o        303 L8J      -0.846000
     15 O17         15.1650    14.6010     4.8120 o        303 L8J      -0.615500
     16 P11         11.5090    10.4650     5.2630 p5       303 L8J       1.326600
     17 O1          10.4750    17.1750     8.8970 os       303 L8J      -0.333900
     18 C01          9.4790    17.3210     9.9280 c3       303 L8J       0.116700
     19 H2           9.7130    14.5610     9.3190 ha       303 L8J       0.134000
     20 H5          10.7130    12.6720     8.2860 ha       303 L8J       0.180000
     21 H           13.4300    10.7120     6.6160 hc       303 L8J       0.085700
     22 H1          12.0870    10.9950     7.4910 hc       303 L8J       0.085700
     23 H3          12.3650    17.0730     7.4000 ha       303 L8J       0.159000
     24 H4          14.3630    12.3190     5.2260 ha       303 L8J       0.164000
     25 H6           9.7020    10.1990     6.2930 ho       303 L8J       0.426000
     26 H7           8.4120    16.8550     9.6490 h1       303 L8J       0.039700
     27 H8           9.2840    18.5030    10.0000 h1       303 L8J       0.039700
     28 H9           9.8890    17.0080    11.0110 h1       303 L8J       0.039700
@<TRIPOS>BOND
     1     1     2 ar  
     2     1     4 ar  
     3     1    17 1   
     4     2     3 ar  
     5     2    19 1   
     6     3     6 ar  
     7     3    20 1   
     8     4     5 ar  
     9     4    23 1   
    10     5     6 ar  
    11     5    11 1   
    12     6     7 1   
    13     7     8 1   
    14     7     9 2   
    15     8    16 1   
    16     8    21 1   
    17     8    22 1   
    18     9    10 1   
    19     9    24 1   
    20    10    11 1   
    21    10    15 2   
    22    12    16 1   
    23    13    16 1   
    24    13    25 1   
    25    14    16 1   
    26    17    18 1   
    27    18    26 1   
    28    18    27 1   
    29    18    28 1   
@<TRIPOS>SUBSTRUCTURE
     1 L8J         1 TEMP              0 ****  ****    0 ROOT
