@<TRIPOS>MOLECULE
L8J
   30    31     1     0     0
SMALL
bcc


@<TRIPOS>ATOM
      1 C02         10.9570    15.9670     8.4500 ca       303 L8J      -0.048300
      2 C03         10.4890    14.6770     8.6960 ca       303 L8J      -0.122300
      3 C04         11.0660    13.5880     8.0960 ca       303 L8J      -0.053000
      4 C06         12.0110    16.1580     7.5950 ca       303 L8J      -0.166000
      5 C07         12.6020    15.0360     6.9830 ca       303 L8J       0.147100
      6 C08         12.1400    13.7470     7.2240 ca       303 L8J      -0.126800
      7 C09         12.8120    12.6840     6.5420 cc       303 L8J       0.150600
      8 C10         12.5470    11.1810     6.6230 c3       303 L8J      -0.297400
      9 C15         13.8680    13.0400     5.7120 cd       303 L8J      -0.306200
     10 C16         14.2600    14.3520     5.5330 c        303 L8J       0.737800
     11 O18         13.6290    15.3130     6.1640 os       303 L8J      -0.342200
     12 O12         11.7780     8.9760     5.2440 o        303 L8J      -0.846500
     13 O13         10.0330    10.7140     5.4950 oh       303 L8J      -0.804400
     14 O14         11.9390    11.0750     3.9480 o        303 L8J      -0.846500
     15 O17         15.1650    14.6010     4.8120 o        303 L8J      -0.618500
     16 P11         11.5090    10.4650     5.2630 p5       303 L8J       1.326600
     17 C01         10.3370    17.1880     9.1060 c3       303 L8J      -0.048800
     18 C17          9.3230    14.4320     9.6380 c3       303 L8J      -0.042800
     19 H           10.7130    12.6720     8.2860 ha       303 L8J       0.176000
     20 H1          13.4300    10.7120     6.6160 hc       303 L8J       0.085700
     21 H2          12.0870    10.9950     7.4910 hc       303 L8J       0.085700
     22 H3          12.3650    17.0730     7.4000 ha       303 L8J       0.142000
     23 H4          14.3630    12.3190     5.2260 ha       303 L8J       0.164000
     24 H5           9.7020    10.1990     6.2930 ho       303 L8J       0.426000
     25 H6           9.1410    17.1040     9.0650 hc       303 L8J       0.039033
     26 H7          10.6880    17.2410    10.2520 hc       303 L8J       0.039033
     27 H8          10.6760    18.1940     8.5440 hc       303 L8J       0.039033
     28 H9           8.3120    14.8300     9.1290 hc       303 L8J       0.037367
     29 H10          9.5160    15.0310    10.6590 hc       303 L8J       0.037367
     30 H11          9.2060    13.2620     9.8850 hc       303 L8J       0.037367
@<TRIPOS>BOND
     1     1     2 ar  
     2     1     4 ar  
     3     1    17 1   
     4     2     3 ar  
     5     2    18 1   
     6     3     6 ar  
     7     3    19 1   
     8     4     5 ar  
     9     4    22 1   
    10     5     6 ar  
    11     5    11 1   
    12     6     7 1   
    13     7     8 1   
    14     7     9 2   
    15     8    16 1   
    16     8    20 1   
    17     8    21 1   
    18     9    10 1   
    19     9    23 1   
    20    10    11 1   
    21    10    15 2   
    22    12    16 1   
    23    13    16 1   
    24    13    24 1   
    25    14    16 1   
    26    17    25 1   
    27    17    26 1   
    28    17    27 1   
    29    18    28 1   
    30    18    29 1   
    31    18    30 1   
@<TRIPOS>SUBSTRUCTURE
     1 L8J         1 TEMP              0 ****  ****    0 ROOT
