@<TRIPOS>MOLECULE
L8J
   30    31     1     0     0
SMALL
bcc


@<TRIPOS>ATOM
      1 C02         10.9580    15.9630     8.4490 ca       303 L8J      -0.043300
      2 C03         10.4900    14.6770     8.6960 ca       303 L8J      -0.189000
      3 C04         11.0570    13.5870     8.1040 ca       303 L8J       0.028700
      4 C06         12.0110    16.1580     7.5950 ca       303 L8J      -0.178000
      5 C07         12.6020    15.0360     6.9830 ca       303 L8J       0.149100
      6 C08         12.1400    13.7470     7.2240 ca       303 L8J      -0.118800
      7 C09         12.8120    12.6840     6.5420 cc       303 L8J       0.146600
      8 C10         12.5470    11.1810     6.6230 c3       303 L8J      -0.303400
      9 C15         13.8680    13.0400     5.7120 cd       303 L8J      -0.326200
     10 C16         14.2600    14.3520     5.5330 c        303 L8J       0.734800
     11 O18         13.6290    15.3130     6.1640 os       303 L8J      -0.345200
     12 O12         11.7780     8.9760     5.2440 o        303 L8J      -0.846000
     13 O13         10.0330    10.7140     5.4950 oh       303 L8J      -0.801400
     14 O14         11.9390    11.0750     3.9480 o        303 L8J      -0.846000
     15 O17         15.1650    14.6010     4.8120 o        303 L8J      -0.617500
     16 P11         11.5090    10.4650     5.2630 p5       303 L8J       1.330600
     17 C17         10.3170    17.1580     9.1280 c3       303 L8J      -0.049800
     18 C18         10.3750    12.2940     8.5210 c3       303 L8J      -0.096800
     19 H2           9.7210    14.5430     9.3230 ha       303 L8J       0.126000
     20 H           13.4300    10.7120     6.6160 hc       303 L8J       0.087700
     21 H1          12.0870    10.9950     7.4910 hc       303 L8J       0.087700
     22 H3          12.3650    17.0730     7.4000 ha       303 L8J       0.144000
     23 H4          14.3630    12.3190     5.2260 ha       303 L8J       0.176000
     24 H5           9.7020    10.1990     6.2930 ho       303 L8J       0.427000
     25 H6           9.2060    16.8870     9.4930 hc       303 L8J       0.038700
     26 H7          10.9790    17.4730    10.0780 hc       303 L8J       0.038700
     27 H8          10.2600    18.0850     8.3660 hc       303 L8J       0.038700
     28 H9           9.3550    12.4900     9.1240 hc       303 L8J       0.068367
     29 H10         11.0840    11.6600     9.2520 hc       303 L8J       0.068367
     30 H11         10.0540    11.6850     7.5440 hc       303 L8J       0.068367
@<TRIPOS>BOND
     1     1     2 ar  
     2     1     4 ar  
     3     1    17 1   
     4     2     3 ar  
     5     2    19 1   
     6     3     6 ar  
     7     3    18 1   
     8     4     5 ar  
     9     4    22 1   
    10     5     6 ar  
    11     5    11 1   
    12     6     7 1   
    13     7     8 1   
    14     7     9 2   
    15     8    16 1   
    16     8    20 1   
    17     8    21 1   
    18     9    10 1   
    19     9    23 1   
    20    10    11 1   
    21    10    15 2   
    22    12    16 1   
    23    13    16 1   
    24    13    24 1   
    25    14    16 1   
    26    17    25 1   
    27    17    26 1   
    28    17    27 1   
    29    18    28 1   
    30    18    29 1   
    31    18    30 1   
@<TRIPOS>SUBSTRUCTURE
     1 L8J         1 TEMP              0 ****  ****    0 ROOT
