@<TRIPOS>MOLECULE
L8J
   24    25     1     0     0
SMALL
bcc


@<TRIPOS>ATOM
      1 C02         10.9410    16.0150     8.4690 ca       303 L8J      -0.262300
      2 C03         10.4460    14.7670     8.7440 ca       303 L8J       0.386200
      3 N04         11.0380    13.6730     8.1300 nb       303 L8J      -0.626000
      4 C06         11.9980    16.1450     7.6050 ca       303 L8J      -0.094000
      5 C07         12.6020    15.0360     6.9830 ca       303 L8J      -0.138300
      6 C08         12.1400    13.7470     7.2240 ca       303 L8J       0.395600
      7 C09         12.8120    12.6840     6.5420 ca       303 L8J      -0.004600
      8 C10         12.5470    11.1810     6.6230 c3       303 L8J      -0.284300
      9 C15         13.8680    13.0400     5.7120 ca       303 L8J      -0.152000
     10 C16         14.3020    14.3460     5.4990 ca       303 L8J      -0.104000
     11 C18         13.6720    15.3480     6.1320 ca       303 L8J      -0.162000
     12 O12         11.7780     8.9760     5.2440 o        303 L8J      -0.861500
     13 O13         10.0330    10.7140     5.4950 oh       303 L8J      -0.788400
     14 O14         11.9390    11.0750     3.9480 o        303 L8J      -0.861500
     15 P11         11.5090    10.4650     5.2630 p5       303 L8J       1.334600
     16 H05         10.5350    16.8230     8.8960 ha       303 L8J       0.124000
     17 H           13.4300    10.7120     6.6160 hc       303 L8J       0.082700
     18 H1          12.0870    10.9950     7.4910 hc       303 L8J       0.082700
     19 H2           9.6770    14.6500     9.3730 h4       303 L8J       0.007100
     20 H3          12.3490    17.0630     7.4150 ha       303 L8J       0.120000
     21 H4          14.3630    12.3190     5.2260 ha       303 L8J       0.152000
     22 H5           9.7020    10.1990     6.2930 ho       303 L8J       0.425000
     23 H6          15.0680    14.5350     4.8860 ha       303 L8J       0.117000
     24 H7          13.9610    16.2960     5.9970 ha       303 L8J       0.113000
@<TRIPOS>BOND
     1     1     2 ar  
     2     1     4 ar  
     3     1    16 1   
     4     2     3 ar  
     5     2    19 1   
     6     3     6 ar  
     7     4     5 ar  
     8     4    20 1   
     9     5     6 ar  
    10     5    11 ar  
    11     6     7 ar  
    12     7     8 1   
    13     7     9 ar  
    14     8    15 1   
    15     8    17 1   
    16     8    18 1   
    17     9    10 ar  
    18     9    21 1   
    19    10    11 ar  
    20    10    23 1   
    21    11    24 1   
    22    12    15 1   
    23    13    15 1   
    24    13    22 1   
    25    14    15 1   
@<TRIPOS>SUBSTRUCTURE
     1 L8J         1 TEMP              0 ****  ****    0 ROOT
