@<TRIPOS>MOLECULE
L8J
   24    25     1     0     0
SMALL
bcc


@<TRIPOS>ATOM
      1 C02         10.9410    16.0150     8.4700 ca       303 L8J      -0.131000
      2 C03         10.4460    14.7670     8.7440 ca       303 L8J      -0.164000
      3 C04         11.0380    13.6730     8.1300 ca       303 L8J      -0.078000
      4 C06         11.9980    16.1450     7.6050 ca       303 L8J      -0.188300
      5 C07         12.6020    15.0360     6.9830 ca       303 L8J       0.397600
      6 C08         12.1400    13.7470     7.2240 ca       303 L8J      -0.145300
      7 C09         12.8120    12.6840     6.5420 ca       303 L8J       0.077700
      8 C10         12.5470    11.1810     6.6230 c3       303 L8J      -0.289300
      9 C15         13.8680    13.0400     5.7120 ca       303 L8J      -0.273300
     10 C16         14.3020    14.3460     5.4990 ca       303 L8J       0.422200
     11 N18         13.6720    15.3480     6.1320 nb       303 L8J      -0.705000
     12 O12         11.7780     8.9760     5.2440 o        303 L8J      -0.854000
     13 O13         10.0330    10.7140     5.4950 oh       303 L8J      -0.800400
     14 O14         11.9390    11.0750     3.9480 o        303 L8J      -0.854000
     15 P11         11.5090    10.4650     5.2630 p5       303 L8J       1.329600
     16 H5          10.5350    16.8230     8.8960 ha       303 L8J       0.113000
     17 H           13.4300    10.7120     6.6160 hc       303 L8J       0.078200
     18 H1          12.0870    10.9950     7.4910 hc       303 L8J       0.078200
     19 H2           9.6770    14.6500     9.3730 ha       303 L8J       0.120000
     20 H3          12.3490    17.0620     7.4150 ha       303 L8J       0.131000
     21 H4          14.3630    12.3190     5.2260 ha       303 L8J       0.143000
     22 H6           9.7020    10.1990     6.2930 ho       303 L8J       0.424000
     23 H7          15.0690    14.5350     4.8860 h4       303 L8J       0.000100
     24 H8          10.6680    12.7670     8.3370 ha       303 L8J       0.165000
@<TRIPOS>BOND
     1     1     2 ar  
     2     1     4 ar  
     3     1    16 1   
     4     2     3 ar  
     5     2    19 1   
     6     3     6 ar  
     7     3    24 1   
     8     4     5 ar  
     9     4    20 1   
    10     5     6 ar  
    11     5    11 ar  
    12     6     7 ar  
    13     7     8 1   
    14     7     9 ar  
    15     8    15 1   
    16     8    17 1   
    17     8    18 1   
    18     9    10 ar  
    19     9    21 1   
    20    10    11 ar  
    21    10    23 1   
    22    12    15 1   
    23    13    15 1   
    24    13    22 1   
    25    14    15 1   
@<TRIPOS>SUBSTRUCTURE
     1 L8J         1 TEMP              0 ****  ****    0 ROOT
